Version 4
SHEET 1 1252 828
WIRE -64 -256 -64 -272
WIRE -64 -256 -224 -256
WIRE 80 -256 -64 -256
WIRE -224 -176 -224 -256
WIRE 80 -176 80 -256
WIRE -64 -128 -160 -128
WIRE 16 -128 -64 -128
WIRE -224 -16 -224 -80
WIRE -64 -16 -64 -128
WIRE -64 -16 -224 -16
WIRE 80 48 80 -80
WIRE 352 48 352 16
WIRE 480 48 480 16
WIRE -224 144 -224 -16
WIRE 80 144 80 48
WIRE 352 160 352 128
WIRE 480 160 480 128
WIRE -272 224 -304 224
WIRE 160 224 128 224
WIRE -224 272 -224 240
WIRE -224 272 -304 272
WIRE 80 272 80 240
WIRE 176 272 80 272
WIRE 352 320 352 288
WIRE -224 352 -224 272
WIRE -64 352 -224 352
WIRE 80 352 80 272
WIRE 80 352 -64 352
WIRE 352 432 352 400
WIRE -64 464 -64 352
WIRE -400 512 -400 496
WIRE -224 512 -400 512
WIRE -400 544 -400 512
WIRE -64 544 -64 464
WIRE 352 560 352 528
WIRE -224 592 -224 512
WIRE -224 592 -336 592
WIRE -128 592 -224 592
WIRE -400 672 -400 640
WIRE -64 672 -64 640
WIRE -64 672 -400 672
WIRE 352 672 352 640
WIRE -64 688 -64 672
FLAG 352 160 0
FLAG 480 160 0
FLAG 352 16 Vcc
FLAG 480 16 Vee
FLAG -64 -272 Vcc
FLAG 352 432 0
FLAG 352 672 0
FLAG -64 688 Vee
FLAG -400 416 Vcc
FLAG -304 224 Vin1
FLAG 352 288 Vin2
FLAG 352 528 Vin1
FLAG 160 224 Vin2
DATAFLAG -304 272 ""
DATAFLAG 176 272 ""
DATAFLAG -64 464 "Ic(Q3)"
DATAFLAG 80 48 ""
SYMBOL voltage 352 32 R0
WINDOW 123 0 0 Left 2
WINDOW 39 0 0 Left 2
SYMATTR InstName V1
SYMATTR Value 5
SYMBOL voltage 480 144 M180
WINDOW 0 24 96 Left 2
WINDOW 3 24 16 Left 2
WINDOW 123 0 0 Left 2
WINDOW 39 0 0 Left 2
SYMATTR InstName V2
SYMATTR Value 5
SYMBOL voltage 352 544 R0
WINDOW 3 51 -52 Left 2
WINDOW 123 0 0 Left 2
WINDOW 39 0 0 Left 2
SYMATTR Value SINE(0 0.001 1000 0 0 0)
SYMATTR InstName V3
SYMBOL voltage 352 304 R0
WINDOW 3 40 -61 Left 2
WINDOW 123 0 0 Left 2
WINDOW 39 0 0 Left 2
SYMATTR Value SINE(0 0.001 1000 0 0 180)
SYMATTR InstName V4
SYMBOL npn -128 544 R0
SYMATTR InstName Q3
SYMATTR Value BCV61
SYMBOL npn -336 544 M0
SYMATTR InstName Q4
SYMATTR Value BCV61
SYMBOL res -416 400 R0
SYMATTR InstName R3
SYMATTR Value 32.4k
SYMBOL nmos -272 144 R0
SYMATTR InstName M1
SYMATTR Value QS5K2
SYMATTR Prefix X
SYMBOL nmos 128 144 M0
SYMATTR InstName M2
SYMATTR Value QS5K2
SYMATTR Prefix X
SYMBOL pnp -160 -80 R180
SYMATTR InstName Q1
SYMATTR Value BCV62
SYMBOL pnp 16 -80 M180
SYMATTR InstName Q2
SYMATTR Value BCV62
TEXT 336 -208 Left 2 !.lib ../Componentes/BJT.txt
TEXT 336 -96 Left 2 !.tran 0 0.01 0
TEXT 336 -168 Left 2 !.lib qs5k2.txt
TEXT 336 -240 Left 2 ;COMPONENTES
TEXT 336 -128 Left 2 ;SIMULACION
TEXT 336 -56 Left 2 ;ALIMENTACION
TEXT 336 208 Left 2 ;ENTRADAS
