Version 4
SHEET 1 1252 872
WIRE 0 -224 0 -240
WIRE 0 -224 -160 -224
WIRE 144 -224 0 -224
WIRE -160 -176 -160 -224
WIRE 144 -176 144 -224
WIRE 272 -144 272 -208
WIRE -160 -128 -160 -176
WIRE 144 -128 144 -176
WIRE 272 -16 272 -64
WIRE 272 -16 240 -16
WIRE -160 16 -160 -48
WIRE 144 16 144 -48
WIRE 416 48 416 16
WIRE 544 48 544 16
WIRE -272 96 -320 96
WIRE -208 96 -272 96
WIRE 240 96 192 96
WIRE 288 96 240 96
WIRE -272 128 -272 96
WIRE 240 128 240 96
WIRE 416 160 416 128
WIRE 544 160 544 128
WIRE -272 224 -272 208
WIRE -160 224 -160 112
WIRE 0 224 -160 224
WIRE 144 224 144 112
WIRE 144 224 0 224
WIRE 240 224 240 208
WIRE -336 272 -336 256
WIRE 416 320 416 288
WIRE 0 336 0 224
WIRE 416 432 416 400
WIRE -336 448 -336 352
WIRE -336 480 -336 448
WIRE -160 480 -336 480
WIRE -336 512 -336 480
WIRE 0 512 0 336
WIRE -160 560 -160 480
WIRE -160 560 -272 560
WIRE -64 560 -160 560
WIRE 416 560 416 528
WIRE -336 640 -336 608
WIRE 0 640 0 608
WIRE 0 640 -336 640
WIRE 0 656 0 640
WIRE 416 672 416 640
FLAG 416 160 0
FLAG 544 160 0
FLAG 416 16 Vcc
FLAG 544 16 Vee
FLAG 0 -240 Vcc
FLAG 416 432 0
FLAG 416 672 0
FLAG 0 656 Vee
FLAG -336 256 Vcc
FLAG -320 96 Vin1
FLAG 416 288 Vin2
FLAG 416 528 Vin1
FLAG 288 96 Vin2
FLAG -272 224 0
FLAG 240 224 0
FLAG 272 -208 0
FLAG 272 -16 Salida
DATAFLAG 0 336 "Ic(Q3)"
DATAFLAG -160 -176 "I(R1)"
DATAFLAG 144 -176 "I(R2)"
DATAFLAG -336 448 "I(R3)"
SYMBOL voltage 416 32 R0
WINDOW 123 0 0 Left 2
WINDOW 39 0 0 Left 2
SYMATTR InstName V1
SYMATTR Value 5
SYMBOL voltage 544 144 M180
WINDOW 0 24 96 Left 2
WINDOW 3 24 16 Left 2
WINDOW 123 0 0 Left 2
WINDOW 39 0 0 Left 2
SYMATTR InstName V2
SYMATTR Value 5
SYMBOL voltage 416 544 R0
WINDOW 3 51 -52 Left 2
WINDOW 123 0 0 Left 2
WINDOW 39 63 45 Left 2
SYMATTR Value SINE(0 0.015 1000 0 0 0)
SYMATTR InstName V3
SYMBOL voltage 416 304 R0
WINDOW 3 40 -61 Left 2
WINDOW 123 0 0 Left 2
WINDOW 39 63 46 Left 2
SYMATTR Value SINE(0 0.015 1000 0 0 180)
SYMATTR InstName V4
SYMBOL npn -64 512 R0
SYMATTR InstName Q3
SYMATTR Value BCV61
SYMBOL npn -272 512 M0
SYMATTR InstName Q4
SYMATTR Value BCV61
SYMBOL res -352 256 R0
SYMATTR InstName R3
SYMATTR Value 24.2k
SYMBOL nmos -208 16 R0
SYMATTR InstName M1
SYMATTR Value QS5K2
SYMATTR Prefix X
SYMBOL nmos 192 16 M0
SYMATTR InstName M2
SYMATTR Value QS5K2
SYMATTR Prefix X
SYMBOL res -176 -144 R0
SYMATTR InstName R1
SYMATTR Value 15k
SYMBOL res 128 -144 R0
SYMATTR InstName R2
SYMATTR Value 15k
SYMBOL res -288 112 R0
SYMATTR InstName R4
SYMATTR Value 1Meg
SYMBOL res 224 112 R0
SYMATTR InstName R5
SYMATTR Value 1Meg
SYMBOL cap 240 -32 R90
WINDOW 0 0 32 VBottom 2
WINDOW 3 32 32 VTop 2
SYMATTR InstName C1
SYMATTR Value 22µf
SYMBOL res 256 -160 R0
SYMATTR InstName R6
SYMATTR Value 10Meg
TEXT 400 -208 Left 2 !.lib ../Componentes/BJT.txt
TEXT 400 -96 Left 2 !.tran 0 0.002 0
TEXT 400 -168 Left 2 !.lib qs5k2.txt
TEXT 400 -240 Left 2 ;COMPONENTES
TEXT 400 -128 Left 2 ;SIMULACION
TEXT 400 -56 Left 2 ;ALIMENTACION
TEXT 400 208 Left 2 ;ENTRADAS
