Version 4
SHEET 1 1252 828
WIRE 112 -272 -48 -272
WIRE 256 -272 112 -272
WIRE 256 -192 256 -272
WIRE -48 -112 -48 -272
WIRE 256 -112 256 -192
WIRE -640 -80 -640 -112
WIRE -512 -80 -512 -112
WIRE -640 32 -640 0
WIRE -512 32 -512 0
WIRE 256 48 256 -32
WIRE -48 144 -48 -32
WIRE 256 144 256 48
WIRE -112 192 -416 192
WIRE 544 192 320 192
WIRE 544 224 544 192
WIRE -48 272 -48 240
WIRE -48 272 -128 272
WIRE 256 272 256 240
WIRE 352 272 256 272
WIRE -416 304 -416 272
WIRE 544 336 544 304
WIRE -48 352 -48 272
WIRE 112 352 -48 352
WIRE 256 352 256 272
WIRE 256 352 112 352
WIRE 112 464 112 352
WIRE -224 512 -224 496
WIRE -48 512 -224 512
WIRE -224 544 -224 512
WIRE 112 544 112 464
WIRE -48 592 -48 512
WIRE -48 592 -160 592
WIRE 48 592 -48 592
WIRE -224 672 -224 640
WIRE 112 672 112 640
WIRE 112 672 -224 672
WIRE 112 688 112 672
FLAG -640 32 0
FLAG -512 32 0
FLAG -640 -112 Vcc
FLAG -512 -112 Vee
FLAG 112 -272 Vcc
FLAG 544 336 0
FLAG -416 304 0
FLAG 112 688 Vee
FLAG -224 416 Vcc
DATAFLAG -128 272 ""
DATAFLAG 352 272 ""
DATAFLAG 16 384 "Ie(Q1)"
DATAFLAG 208 384 "Ie(Q2)"
DATAFLAG 112 464 "Ic(Q3)"
DATAFLAG 256 48 ""
DATAFLAG 256 -192 "I(R2)"
SYMBOL npn -112 144 R0
SYMATTR InstName Q1
SYMATTR Value QS5W1
SYMBOL npn 320 144 M0
SYMATTR InstName Q2
SYMATTR Value QS5W1
SYMBOL voltage -640 -96 R0
WINDOW 123 0 0 Left 2
WINDOW 39 0 0 Left 2
SYMATTR InstName V1
SYMATTR Value 5
SYMBOL voltage -512 16 M180
WINDOW 0 24 96 Left 2
WINDOW 3 24 16 Left 2
WINDOW 123 0 0 Left 2
WINDOW 39 0 0 Left 2
SYMATTR InstName V2
SYMATTR Value 5
SYMBOL voltage -416 176 R0
WINDOW 3 -7 -21 Left 2
WINDOW 123 0 0 Left 2
WINDOW 39 0 0 Left 2
SYMATTR Value SINE(0 0.01 1000 0 0 0)
SYMATTR InstName V3
SYMBOL voltage 544 208 R0
WINDOW 3 29 -33 Left 2
WINDOW 123 0 0 Left 2
WINDOW 39 0 0 Left 2
SYMATTR Value SINE(0 0.01 1000 0 0 180)
SYMATTR InstName V4
SYMBOL npn 48 544 R0
SYMATTR InstName Q3
SYMATTR Value BCV61
SYMBOL npn -160 544 M0
SYMATTR InstName Q4
SYMATTR Value BCV61
SYMBOL res -64 -128 R0
SYMATTR InstName R1
SYMATTR Value 15k
SYMBOL res 240 -128 R0
SYMATTR InstName R2
SYMATTR Value 15k
SYMBOL res -240 400 R0
SYMATTR InstName R3
SYMATTR Value 32.4k
TEXT 480 -224 Left 2 !.lib ../Componentes/BJT.txt
TEXT -888 168 Left 2 !.tran 0 0.01 0
