Version 4
SHEET 1 1252 872
WIRE 64 -80 -160 -80
WIRE -160 16 -160 -80
WIRE 64 64 64 -80
WIRE -208 96 -272 96
WIRE -272 128 -272 96
WIRE -272 240 -272 208
WIRE -160 240 -160 112
WIRE -160 240 -272 240
WIRE -112 240 -160 240
WIRE 64 240 64 144
WIRE 64 240 -32 240
WIRE -160 288 -160 240
FLAG -160 288 0
SYMBOL voltage 64 48 R0
WINDOW 123 0 0 Left 2
WINDOW 39 0 0 Left 2
SYMATTR InstName V1
SYMATTR Value 5
SYMBOL voltage -272 112 R0
WINDOW 3 -345 103 Left 2
WINDOW 123 0 0 Left 2
WINDOW 39 63 46 Left 2
SYMATTR Value SINE(0 0.015 1000 0 0 180)
SYMATTR InstName V2
SYMBOL nmos -208 16 R0
SYMATTR InstName M1
SYMATTR Value QS5K2
SYMATTR Prefix X
SYMBOL res -16 224 R90
WINDOW 0 0 56 VBottom 2
WINDOW 3 32 56 VTop 2
SYMATTR InstName R1
SYMATTR Value 15k
TEXT 400 -96 Left 2 !.tran 0 0.002 0
TEXT 400 -168 Left 2 !.lib ../../Componentes\\qs5k2.txt
TEXT 400 -240 Left 2 ;COMPONENTES
TEXT 400 -128 Left 2 ;SIMULACION
TEXT 400 -56 Left 2 ;ALIMENTACION
