Version 4
SHEET 1 1252 872
WIRE 128 -176 128 -192
WIRE 464 -128 464 -208
WIRE 304 -80 224 -80
WIRE 400 -80 304 -80
WIRE 656 0 656 -32
WIRE 784 0 784 -32
WIRE 304 32 304 -80
WIRE 128 112 128 -96
WIRE 464 112 464 -32
WIRE 656 112 656 80
WIRE 784 112 784 80
WIRE 304 128 304 112
WIRE 128 256 128 112
WIRE 304 256 128 256
WIRE 656 256 656 224
WIRE 128 288 128 256
WIRE 464 288 464 112
WIRE 304 336 304 256
WIRE 304 336 192 336
WIRE 400 336 304 336
WIRE 656 368 656 336
WIRE 128 416 128 384
WIRE 464 416 464 384
WIRE 464 416 128 416
WIRE 464 432 464 416
FLAG 656 112 0
FLAG 784 112 0
FLAG 656 -32 Vcc
FLAG 784 -32 Vee
FLAG 656 368 0
FLAG 224 -80 Vin1
FLAG 656 224 Vin1
FLAG 464 432 Vee
FLAG 128 -192 Vcc
FLAG 464 -208 Vcc
FLAG 304 128 Vee
DATAFLAG 464 112 "Ic(Q2)"
DATAFLAG 128 112 "I(R3)"
SYMBOL voltage 656 -16 R0
WINDOW 123 0 0 Left 2
WINDOW 39 0 0 Left 2
SYMATTR InstName V1
SYMATTR Value 5
SYMBOL voltage 784 96 M180
WINDOW 0 24 96 Left 2
WINDOW 3 24 16 Left 2
WINDOW 123 0 0 Left 2
WINDOW 39 0 0 Left 2
SYMATTR InstName V2
SYMATTR Value 5
SYMBOL voltage 656 240 R0
WINDOW 3 51 -52 Left 2
WINDOW 123 24 44 Left 2
WINDOW 39 63 45 Left 2
SYMATTR Value SINE(0 0.015 1000 0 0 0)
SYMATTR Value2 AC 0.015 0
SYMATTR InstName V3
SYMBOL npn 400 -128 R0
SYMATTR InstName Q1
SYMATTR Value 2N3904
SYMBOL npn 400 288 R0
SYMATTR InstName Q2
SYMATTR Value BCV61
SYMBOL npn 192 288 M0
SYMATTR InstName Q5
SYMATTR Value BCV61
SYMBOL res 112 -192 R0
SYMATTR InstName R3
SYMATTR Value 35k
SYMBOL res 288 16 R0
SYMATTR InstName R9
SYMATTR Value 1Meg
TEXT 640 -208 Left 2 !.lib ../Componentes/BJT.txt
TEXT 640 -240 Left 2 ;COMPONENTES
TEXT 640 -176 Left 2 ;SIMULACION
TEXT 640 -104 Left 2 ;ALIMENTACION
TEXT 640 160 Left 2 ;ENTRADAS
TEXT 640 -144 Left 2 !.tran 0 0.002 0
