Version 4
SHEET 1 1364 828
WIRE -128 -240 -432 -240
WIRE 32 -240 -128 -240
WIRE 176 -240 32 -240
WIRE 384 -240 176 -240
WIRE 176 -176 176 -240
WIRE -128 -160 -128 -240
WIRE -128 -112 -128 -160
WIRE 176 -112 176 -176
WIRE 16 -64 -64 -64
WIRE 112 -64 16 -64
WIRE 384 -64 384 -240
WIRE -432 -48 -432 -240
WIRE 960 32 960 0
WIRE 1088 32 1088 0
WIRE -128 48 -128 -16
WIRE 16 48 16 -64
WIRE 16 48 -128 48
WIRE 176 48 176 -16
WIRE -256 96 -336 96
WIRE -128 96 -128 48
WIRE -128 96 -192 96
WIRE -128 144 -128 96
WIRE 176 144 176 48
WIRE 960 144 960 112
WIRE 1088 144 1088 112
WIRE -544 192 -592 192
WIRE -432 192 -432 32
WIRE -432 192 -480 192
WIRE -192 192 -432 192
WIRE 480 192 240 192
WIRE 592 192 544 192
WIRE -128 272 -128 240
WIRE -128 272 -208 272
WIRE 176 272 176 240
WIRE 272 272 176 272
WIRE 976 304 976 288
WIRE -432 352 -432 192
WIRE -128 352 -128 272
WIRE 32 352 -128 352
WIRE 176 352 176 272
WIRE 176 352 32 352
WIRE 384 368 384 16
WIRE -304 384 -304 352
WIRE 976 400 976 384
WIRE -304 416 -304 384
WIRE 32 464 32 352
WIRE -304 512 -304 496
WIRE -128 512 -304 512
WIRE 976 512 976 496
WIRE -304 544 -304 512
WIRE 32 544 32 464
WIRE -128 592 -128 512
WIRE -128 592 -240 592
WIRE -32 592 -128 592
WIRE 976 608 976 592
WIRE -432 672 -432 432
WIRE -304 672 -304 640
WIRE -304 672 -432 672
WIRE 32 672 32 640
WIRE 32 672 -304 672
WIRE 384 672 384 448
WIRE 384 672 32 672
WIRE 32 688 32 672
FLAG 960 144 0
FLAG 1088 144 0
FLAG 960 0 Vcc
FLAG 1088 0 Vee
FLAG 32 -240 Vcc
FLAG 32 688 Vee
FLAG -304 352 Vcc
FLAG 976 400 0
FLAG 976 608 0
FLAG -592 192 Vin1
FLAG 976 496 Vin1
FLAG 976 288 Vin2
FLAG 592 192 Vin2
DATAFLAG -208 272 ""
DATAFLAG 272 272 ""
DATAFLAG 32 464 "Ic(Q3)"
DATAFLAG 176 48 ""
DATAFLAG 176 -176 "I(R2)"
DATAFLAG -304 384 "I(R3)"
DATAFLAG -128 -160 "I(R1)"
SYMBOL npn -192 144 R0
SYMATTR InstName Q1
SYMATTR Value QS5W1
SYMBOL npn 240 144 M0
SYMATTR InstName Q2
SYMATTR Value QS5W1
SYMBOL voltage 960 16 R0
WINDOW 123 0 0 Left 2
WINDOW 39 0 0 Left 2
SYMATTR InstName V1
SYMATTR Value 5
SYMBOL voltage 1088 128 M180
WINDOW 0 24 96 Left 2
WINDOW 3 24 16 Left 2
WINDOW 123 0 0 Left 2
WINDOW 39 0 0 Left 2
SYMATTR InstName V2
SYMATTR Value 5
SYMBOL voltage 976 496 R0
WINDOW 3 65 -17 Left 2
WINDOW 123 0 0 Left 2
WINDOW 39 0 0 Left 2
SYMATTR Value SINE(0 0.01 1000 0 0 0)
SYMATTR InstName V3
SYMBOL voltage 976 288 R0
WINDOW 3 66 -18 Left 2
WINDOW 123 0 0 Left 2
WINDOW 39 0 0 Left 2
SYMATTR Value SINE(0 0.01 1000 0 0 180)
SYMATTR InstName V4
SYMBOL npn -32 544 R0
SYMATTR InstName Q3
SYMATTR Value BCV61
SYMBOL npn -240 544 M0
SYMATTR InstName Q4
SYMATTR Value BCV61
SYMBOL res -320 400 R0
SYMATTR InstName R3
SYMATTR Value 32k
SYMBOL pnp -64 -16 R180
SYMATTR InstName Q5
SYMATTR Value BCV62
SYMBOL pnp 112 -16 M180
SYMATTR InstName Q6
SYMATTR Value BCV62
SYMBOL cap -480 176 R90
WINDOW 0 0 32 VBottom 2
WINDOW 3 32 32 VTop 2
SYMATTR InstName C1
SYMATTR Value 22µ
SYMBOL cap 544 176 R90
WINDOW 0 0 32 VBottom 2
WINDOW 3 32 32 VTop 2
SYMATTR InstName C2
SYMATTR Value 22µ
SYMBOL res -448 -64 R0
SYMATTR InstName R1
SYMATTR Value 3MEG
SYMBOL res -448 336 R0
SYMATTR InstName R2
SYMATTR Value 7MEG
SYMBOL res 368 -80 R0
SYMATTR InstName R4
SYMATTR Value 3Meg
SYMBOL res 368 352 R0
SYMATTR InstName R5
SYMATTR Value 7MEG
SYMBOL cap -192 80 R90
WINDOW 0 0 32 VBottom 2
WINDOW 3 32 32 VTop 2
SYMATTR InstName C3
SYMATTR Value 22µ
TEXT 944 -184 Left 2 !.lib ../Componentes/BJT.txt
TEXT 944 -120 Left 2 !.tran 0 0.01 0
TEXT 944 -208 Left 2 ;COMPONENTES
TEXT 944 -144 Left 2 ;SIMULACION
TEXT 944 -80 Left 2 ;ALIMENTACION
TEXT 944 200 Left 2 ;ENTRADAS
