* QQS5W2 NPN BJT model
* Model Generated by ROHM
* All Rights Reserved
* Commercial Use or
* Resale Restricted
* Date: 2010/03/04
.MODEL QQS5W2 NPN
+ IS=420.00E-15
+ BF=307.28
+ VAF=140
+ IKF=5
+ ISE=420.00E-15
+ NE=1.5998
+ BR=128.39
+ VAR=30
+ IKR=4.2658
+ ISC=420.91E-15
+ NC=1.2171
+ NK=.7604
+ RE=20.000E-3
+ RB=1.7158
+ RC=89.720E-3
+ CJE=283.62E-12
+ VJE=.7243
+ MJE=.35199
+ CJC=44.087E-12
+ VJC=.54497
+ MJC=.40197
+ TF=450.93E-12
+ XTF=66.611
+ VTF=32.273
+ ITF=29.362
+ TR=11.200E-9
+ XTB=1.5000
